Version 4
SHEET 1 1852 832
WIRE -112 112 -112 80
WIRE -528 128 -640 128
WIRE -400 128 -464 128
WIRE -144 128 -400 128
WIRE -16 144 -16 48
WIRE -16 144 -80 144
WIRE 64 144 -16 144
WIRE 240 144 144 144
WIRE 336 144 240 144
WIRE 528 144 400 144
WIRE 704 144 528 144
WIRE 832 144 784 144
WIRE 880 144 832 144
WIRE 1024 144 944 144
WIRE 1120 144 1024 144
WIRE -144 160 -240 160
WIRE -112 192 -112 176
WIRE 832 192 832 144
WIRE 1024 192 1024 144
WIRE -400 208 -400 128
WIRE 240 208 240 144
WIRE 400 304 400 256
WIRE 832 304 832 272
WIRE 1024 304 1024 256
WIRE -576 320 -576 256
WIRE 240 320 240 288
WIRE 368 320 240 320
WIRE 528 336 528 144
WIRE 528 336 432 336
WIRE -240 352 -240 160
WIRE -176 352 -240 352
WIRE -16 352 -16 144
WIRE -16 352 -96 352
WIRE 368 352 336 352
WIRE 240 384 240 320
WIRE -240 416 -240 352
WIRE 400 416 400 368
WIRE -576 432 -576 400
WIRE -400 432 -400 288
WIRE -400 432 -576 432
WIRE 336 448 336 352
WIRE 528 448 528 336
WIRE 528 448 336 448
WIRE -576 480 -576 432
WIRE -400 480 -400 432
WIRE 240 496 240 448
WIRE -240 576 -240 496
WIRE 768 576 768 512
WIRE 928 576 928 512
WIRE -576 608 -576 560
WIRE -400 608 -400 544
WIRE -240 672 -240 640
WIRE 768 752 768 656
WIRE 928 752 928 656
FLAG 240 496 0
FLAG 928 752 0
FLAG 928 512 VDD
FLAG 768 752 0
FLAG 768 512 MIC_IN
FLAG -240 672 0
FLAG -400 608 0
FLAG -576 608 0
FLAG -576 256 VDD
FLAG -640 128 MIC_IN
FLAG -16 48 AMP_OUT
FLAG 1024 304 0
FLAG 832 304 0
FLAG 1120 144 ADC_IN
FLAG 400 256 VDD
FLAG 400 416 0
FLAG -112 192 0
FLAG -112 80 VDD
SYMBOL res 160 128 R90
WINDOW 0 0 56 VBottom 2
WINDOW 3 32 56 VTop 2
SYMATTR InstName R1
SYMATTR Value 7.68K
SYMBOL res 256 304 R180
WINDOW 0 36 76 Left 2
WINDOW 3 36 40 Left 2
SYMATTR InstName R2
SYMATTR Value 14.3K
SYMBOL cap 400 128 R90
WINDOW 0 0 32 VBottom 2
WINDOW 3 32 32 VTop 2
SYMATTR InstName C1
SYMATTR Value 1.5n
SYMBOL cap 256 448 R180
WINDOW 0 24 56 Left 2
WINDOW 3 24 8 Left 2
SYMATTR InstName C2
SYMATTR Value 680p
SYMBOL voltage 928 560 R0
WINDOW 123 24 124 Left 2
WINDOW 39 0 0 Left 0
SYMATTR InstName V1
SYMATTR Value 3.3
SYMBOL voltage 768 560 R0
WINDOW 3 -245 92 Left 2
WINDOW 123 -241 118 Left 2
WINDOW 39 0 0 Left 0
SYMATTR Value SINE(0 0.020 1K)
SYMATTR Value2 AC 1.0
SYMATTR InstName V2
SYMBOL res -80 336 R90
WINDOW 0 0 56 VBottom 2
WINDOW 3 32 56 VTop 2
SYMATTR InstName R3
SYMATTR Value 50K
SYMBOL cap -256 576 R0
SYMATTR InstName C3
SYMATTR Value 4.7µ
SYMBOL res -416 192 R0
SYMATTR InstName R5
SYMATTR Value 100K
SYMBOL res -592 304 R0
SYMATTR InstName R6
SYMATTR Value 50K
SYMBOL res -592 464 R0
SYMATTR InstName R7
SYMATTR Value 50K
SYMBOL cap -416 480 R0
SYMATTR InstName C4
SYMATTR Value 4.7µ
SYMBOL cap -464 112 R90
WINDOW 0 0 32 VBottom 2
WINDOW 3 32 32 VTop 2
SYMATTR InstName C5
SYMATTR Value 220n
SYMBOL res -256 400 R0
SYMATTR InstName R8
SYMATTR Value 1K
SYMBOL cap 944 128 R90
WINDOW 0 0 32 VBottom 2
WINDOW 3 32 32 VTop 2
SYMATTR InstName C6
SYMATTR Value 1µ
SYMBOL cap 1008 192 R0
SYMATTR InstName C7
SYMATTR Value 180p
SYMBOL res 800 128 R90
WINDOW 0 0 56 VBottom 2
WINDOW 3 32 56 VTop 2
SYMATTR InstName R4
SYMATTR Value 0
SYMBOL res 848 288 R180
WINDOW 0 36 76 Left 2
WINDOW 3 36 40 Left 2
SYMATTR InstName R9
SYMATTR Value 100Meg
SYMBOL MCP6271 400 336 R0
WINDOW 3 -117 -46 Left 2
SYMATTR InstName U2
SYMBOL MCP6271 -112 144 R0
SYMATTR InstName U3
TEXT 32 16 Left 2 ;2nd Order Sallen-Key LPF\nFc=15KHz
TEXT -1000 416 Left 2 ;DC Bias Mic Signal @ (Vpp/2)\nVpp is the full-scale input to ADC
TEXT -1000 776 Left 2 !.ac dec 100 1 1Meg
TEXT 704 -96 Left 2 ;RC configuration of R4, R9, C6, and C7 are suggested by the design document for the CS5343 ADC.\nThe ADC will self-bias the voltage of the input signal. The full-scale range is defined as 0.56*VA.\nThus the Vpeak for ADC input is approximate 0.28*VC.
LINE Normal 880 480 880 0 2
RECTANGLE Normal 688 560 32 64 2
